src/test/resources/netPositionsData/20190618_0030_2D2_RO0.UCT
##C 2007.05.01

##N
##ZRO
RNA_BE11 SHADOW       1 2 400.00   10.00   10.00   10.00   10.00  217.46   20.00
RVA_IS11 SHADOW       1 2 400.00   10.00   10.00   10.00   10.00  822.71   20.00
##ZXX
XNA_BE11 CORE         1 0 400.00   10.00   10.00   10.00   10.00   20.00   20.00
XVA_IS11 OUT          1 0 400.00   10.00   10.00   10.00   10.00   20.00   20.00
##L
RNA_BE11 XNA_BE11 1 0  20.00  20.00   20.00   5000
RVA_IS11 XVA_IS11 1 0  20.00  20.00   20.00   5000
##T
##R
